  
       XFOIL         Version 6.99
  
 Calculated polar for: NACA 65(2)-415                                  
  
 1 1 Reynolds number fixed          Mach number fixed         
  
 xtrf =   1.000 (top)        1.000 (bottom)  
 Mach =   0.101     Re =     0.188 e 6     Ncrit =   9.000
  
   alpha    CL        CD       CDp       CM     Top_Xtr  Bot_Xtr
  ------ -------- --------- --------- -------- -------- --------
  13.715   1.1729   0.08082   0.07619  -0.0154   0.0427   1.0000
